%chk=22.chk
%nprocshared=16
#p freq pbepbe/6-311++g(3df,3pd) geom=connectivity

G3 HOF calculation for No.22

0 1
 O                  0.00000000    0.00000000    0.00000000
 C                  0.83104695   -1.17044697    0.00000000
 C                  0.83104695    1.17044697    0.00000000
 C                  2.23930528   -0.68933345    0.32690248
 C                  2.23930528    0.68933345   -0.32690248
 H                  0.42833513   -1.87883004    0.73023159
 H                  0.79678681   -1.64024822   -0.99257785
 H                  0.42833513    1.87883004   -0.73023159
 H                  0.79678681    1.64024822    0.99257785
 H                  2.36811470   -0.59371370    1.40977878
 H                  3.01546783   -1.35791602   -0.05486279
 H                  2.36811470    0.59371370   -1.40977878
 H                  3.01546783    1.35791602    0.05486279

 1 2 1.0 3 1.0
 2 4 1.0 6 1.0 7 1.0
 3 5 1.0 8 1.0 9 1.0
 4 5 1.0 10 1.0 11 1.0
 5 12 1.0 13 1.0
 6
 7
 8
 9
 10
 11
 12
 13

