%chk=24.chk
%nprocshared=16
#p freq pbepbe/6-311++g(3df,3pd) geom=connectivity

G3 HOF calculation for No.24

0 1
 C                  0.00000000    0.00000000    0.00000000
 C                  0.00000000    0.00000000    2.87962158
 O                  0.00000000    0.00000000   -1.23647021
 O                  0.00000000   -0.00000000    4.11609179
 C                  0.00000000   -1.26490802    0.76598892
 C                  0.00000000    1.26490802    0.76598892
 C                  0.00000000    1.26490802    2.11363266
 C                  0.00000000   -1.26490802    2.11363266
 H                  0.00000000   -2.18118494    0.18171873
 H                  0.00000000    2.18118494    0.18171873
 H                  0.00000000    2.18118494    2.69790285
 H                  0.00000000   -2.18118494    2.69790285

 1 3 2.0 5 1.0 6 1.0
 2 4 2.0 7 1.0 8 1.0
 3
 4
 5 8 2.0 9 1.0
 6 7 2.0 10 1.0
 7 11 1.0
 8 12 1.0
 9
 10
 11
 12

