%chk=25.chk
%nprocshared=16
#p freq pbepbe/6-311++g(3df,3pd) geom=connectivity

G3 HOF calculation for No.25

0 1
 C                  0.00000000    0.00000000    0.00000000
 C                 -2.66510328   -0.00000000    0.00000000
 N                 -0.59462625   -1.20191448    0.00000000
 N                 -0.59462625    1.20191448    0.00000000
 C                 -1.93708215   -1.18535700    0.00000000
 C                 -1.93708215    1.18535700    0.00000000
 H                  1.08748284    0.00000000    0.00000000
 H                 -3.75023199   -0.00000000    0.00000000
 H                 -2.43109162   -2.15494593    0.00000000
 H                 -2.43109162    2.15494593    0.00000000

 1 3 1.5 4 1.5 7 1.0
 2 5 1.5 6 1.5 8 1.0
 3 5 1.5
 4 6 1.5
 5 9 1.0
 6 10 1.0
 7
 8
 9
 10

