%chk=27.chk
%nprocshared=16
#p freq pbepbe/6-311++g(3df,3pd) geom=connectivity

G3 HOF calculation for No.27

0 1
 C                  0.00000000    0.00000000    0.00000000
 C                  0.00000000    0.00000000    2.77825700
 Cl                 0.00000000    0.00000000   -1.74021852
 C                  0.00000000   -1.21396615    0.68384472
 C                  0.00000000    1.21396615    0.68384472
 H                  0.00000000   -0.00000000    3.86471458
 C                  0.00000000    1.20630789    2.07802005
 C                  0.00000000   -1.20630789    2.07802005
 H                  0.00000000   -2.14775915    0.12957408
 H                  0.00000000    2.14775915    0.12957408
 H                  0.00000000    2.15049024    2.61624419
 H                  0.00000000   -2.15049024    2.61624419

 1 3 1.0 4 1.5 5 1.5
 2 6 1.0 7 1.5 8 1.5
 3
 4 8 1.5 9 1.0
 5 7 1.5 10 1.0
 6
 7 11 1.0
 8 12 1.0
 9
 10
 11
 12

