%chk=38.chk
%nproc=16
#p freq pbepbe/6-311++G(3df,3pd) 

G3 HOF calculation for No.38

 0,1
  H                                                 1.002229824400      1.787285242900      0.006505071000
  S                                                 0.000000000000      0.000000000000      1.304132336200
  C                                                -0.008048640700     -1.335143800300      0.053944424100
  C                                                 0.350018055200     -0.676925561500     -1.274988406200
  C                                                -0.350018055200      0.676925561500     -1.274988406200
  C                                                 0.008048640700      1.335143800300      0.053944424100
  H                                                -0.709331472300      2.106249588100      0.342902506000
  H                                                -1.002229824400     -1.787285242900      0.006505071000
  H                                                 0.709331472300     -2.106249588100      0.342902506000
  H                                                 1.433792229800     -0.529329045400     -1.336128807200
  H                                                 0.046663160000     -1.303551098000     -2.120073566700
  H                                                -1.433792229800      0.529329045400     -1.336128807200
  H                                                -0.046663160000      1.303551098000     -2.120073566700

 1 6 1.000
 2 3 1.000 6 1.000
 3 2 1.000 4 1.000 8 1.000 9 1.000
 4 3 1.000 5 1.000 10 1.000 11 1.000
 5 4 1.000 6 1.000 12 1.000 13 1.000
 6 1 1.000 2 1.000 5 1.000 7 1.000
 7 6 1.000
 8 3 1.000
 9 3 1.000
 10 4 1.000
 11 4 1.000
 12 5 1.000
 13 5 1.000
 
