%chk=4.chk
%nprocshared=16
#p freq pbepbe/6-311++g(3df,3pd) geom=connectivity

G3 HOF calculation for No.4

0 1
 C                  0.00000000    0.00000000    0.00000000
 C                  1.27445341   -0.00000000   -0.83765260
 C                 -1.27445341   -0.00000000   -0.83765260
 C                  2.54045875    0.00000000    0.01219440
 C                 -2.54045875   -0.00000000    0.01219440
 H                  0.00000000    0.87838555    0.65935493
 H                  0.00000000   -0.87838555    0.65935493
 H                  1.27242795    0.87767827   -1.49562025
 H                  1.27242795   -0.87767827   -1.49562025
 H                 -1.27242795   -0.87767827   -1.49562025
 H                 -1.27242795    0.87767827   -1.49562025
 H                  2.57692874   -0.88363590    0.65633812
 H                  2.57692874    0.88363590    0.65633812
 H                 -2.57692874    0.88363590    0.65633812
 H                 -2.57692874   -0.88363590    0.65633812
 H                  3.44072869    0.00000000   -0.60874073
 H                 -3.44072869   -0.00000000   -0.60874073

 1 2 1.0 3 1.0 6 1.0 7 1.0
 2 4 1.0 8 1.0 9 1.0
 3 5 1.0 10 1.0 11 1.0
 4 12 1.0 13 1.0 16 1.0
 5 14 1.0 15 1.0 17 1.0
 6
 7
 8
 9
 10
 11
 12
 13
 14
 15
 16
 17

