%chk=63.chk
%nprocshared=16
#p freq pbepbe/6-311++g(3df,3pd) geom=connectivity

G3 HOF calculation for No.63

0 1
 P                  0.00000000    0.00000000    1.34405231
 P                  1.26718467    0.00000000   -0.44801744
 P                 -0.63359235    1.09741410   -0.44801744
 P                 -0.63359235   -1.09741410   -0.44801744

 1 2 1.0 3 1.0 4 1.0
 2 3 1.0 4 1.0
 3 4 1.0
 4

