%chk=64.chk
%nproc=16
#p freq pbepbe/6-311++G(3df,3pd) 

G3 HOF calculation for No.64

 0,1
  S                                                 0.000000000000      0.000000000000      0.000000000000
  O                                                 0.000000000000      0.000000000000      1.457994650000
  O                                                 1.262660405482      0.000000000000     -0.728997325000
  O                                                -1.262660405482      0.000000000000     -0.728997325000

 1 2 2.000 3 2.000 4 2.000
 2 1 2.000
 3 1 2.000
 4 1 2.000
 
