%chk=65.chk
%nproc=16
#p freq pbepbe/6-311++G(3df,3pd) 

G3 HOF calculation for No.65

 0,1
  S                                                 0.000000000000      0.000000000000      0.000000000000
  Cl                                                0.000000000000      0.000000000000      2.034886190000
  Cl                                                1.980176943570      0.000000000000     -0.468680145093

 1 2 1.000 3 1.000
 2 1 1.000
 3 1 1.000
 
