%chk=66.chk
%nproc=16
#p freq pbepbe/6-311++G(3df,3pd) 

G3 HOF calculation for No.66

 0,1
  P                                                 0.000000000000      0.000000000000      0.000000000000
  O                                                 0.000000000000      0.000000000000      1.476376960000
  Cl                                                1.821696464570      0.000000000000     -0.845375984815
  Cl                                               -0.910848232285     -1.577635416302     -0.845375984815
  Cl                                               -0.910848232285      1.577635416302     -0.845375984815

 1 2 2.000 3 1.000 4 1.000 5 1.000
 2 1 2.000
 3 1 1.000
 4 1 1.000
 5 1 1.000
 
