%chk=69.chk
%nprocshared=16
#p freq pbepbe/6-311++g(3df,3pd) geom=connectivity

G3 HOF calculation for No.69

0 1
 P                  0.00000000    0.00000000    0.00000000
 Cl                 1.83088551    0.00000000   -0.93148744
 Cl                -0.91544276   -1.58559337   -0.93148744
 Cl                -0.91544276    1.58559337   -0.93148744

 1 2 1.0 3 1.0 4 1.0
 2
 3
 4

