%chk=70.chk
%nproc=16
#p freq pbepbe/6-311++G(3df,3pd) 

G3 HOF calculation for No.70

 0,1
  S                                                 0.000000000000      0.000000000000      0.000000000000
  S                                                 0.000000000000      0.000000000000      1.978080020000
  Cl                                                1.975955554098      0.000000000000     -0.622741988719
  Cl                                                0.142878620835      1.970783106148      2.600822008719

 1 2 1.000 3 1.000
 2 1 1.000 4 1.000
 3 1 1.000
 4 2 1.000
 
