%chk=71.chk
%nproc=16
#p freq pbepbe/6-311++G(3df,3pd) 

G3 HOF calculation for No.71

 0,1
  Si                                                0.000000000000      0.000000000000      0.000000000000
  Cl                                                0.000000000000      0.000000000000      2.073220170000
  Cl                                                2.030089353919      0.000000000000     -0.420688826092

 1 2 1.000 3 1.000
 2 1 1.000
 3 1 1.000
 
