%chk=73.chk
%nproc=16
#p freq pbepbe/6-311++G(3df,3pd) 

G3 HOF calculation for No.73

 0,1
  C                                                 0.000000000000      0.000000000000      0.000000000000
  C                                                 0.000000000000      0.000000000000      1.527859470000
  F                                                 1.260264109528      0.000000000000     -0.450982790512
  F                                                -0.630132054764     -1.091420734329     -0.450982790512
  F                                                -0.630132054764      1.091420734329     -0.450982790512
  F                                                -1.260264109528      0.000000000000      1.978842260512
  F                                                 0.630132054764     -1.091420734329      1.978842260512
  F                                                 0.630132054764      1.091420734329      1.978842260512

 1 2 1.000 3 1.000 4 1.000 5 1.000
 2 1 1.000 6 1.000 7 1.000 8 1.000
 3 1 1.000
 4 1 1.000
 5 1 1.000
 6 2 1.000
 7 2 1.000
 8 2 1.000
 
