%chk=8.chk
%nprocshared=16
#p freq pbepbe/6-311++g(3df,3pd) geom=connectivity

G3 HOF calculation for No.8

0 1
 C                  0.00000000    0.00000000    1.45493687
 C                  1.26001229    0.00000000   -0.72746843
 C                 -1.26001229   -0.00000000   -0.72746843
 C                 -1.26001229   -0.46571786    0.72746844
 C                  1.26001229   -0.46571786    0.72746844
 C                 -0.00000000   -0.46571786   -1.45493687
 H                  0.00000000    1.09719832    1.50777735
 H                  0.00000000   -0.36430993    2.48903739
 H                  1.30577349    1.09719832   -0.75388867
 H                  2.15556961   -0.36430993   -1.24451870
 H                 -1.30577349    1.09719832   -0.75388867
 H                 -2.15556961   -0.36430993   -1.24451870
 H                 -1.30577349   -1.56291618    0.75388867
 H                 -2.15556961   -0.10140793    1.24451870
 H                  1.30577349   -1.56291618    0.75388867
 H                  2.15556961   -0.10140793    1.24451870
 H                 -0.00000000   -1.56291618   -1.50777735
 H                 -0.00000000   -0.10140793   -2.48903739

 1 4 1.0 5 1.0 7 1.0 8 1.0
 2 5 1.0 6 1.0 9 1.0 10 1.0
 3 4 1.0 6 1.0 11 1.0 12 1.0
 4 13 1.0 14 1.0
 5 15 1.0 16 1.0
 6 17 1.0 18 1.0
 7
 8
 9
 10
 11
 12
 13
 14
 15
 16
 17
 18

